20

C	-1.24719	-1.17182	-0.69614
C	-1.24719	-1.17182	 0.69614
N	-0.25895	-1.72358	 1.41448
C	 0.73153	-2.26522	 0.69673
C	 0.73153	-2.26522	-0.69673
N	-0.25895	-1.72358	-1.41448
H	-2.06344	-0.72232	-1.24728
H	-2.06344	-0.72232	 1.24728
H	 1.54880	-2.71283	 1.24756
H	 1.54880	-2.71283	-1.24756
C	-0.33800	 2.08006	 1.13005
C	 0.85403	 1.35935	 1.13063
N	 1.47018	 0.99076	 0.00000
C	 0.85403	 1.35935	-1.13063
C	-0.33800	 2.08006	-1.13005
N	-0.95231	 2.45288	 0.00000
H	-0.81038	 2.36430	 2.06186
H	 1.32086	 1.06706	 2.06240
H	 1.32086	 1.06706	-2.06240
H	-0.81038	 2.36430	-2.06186
